128

Li        -1.62218       -0.41198        0.30052
N         -0.39915        1.67284        0.28006
C         -0.06832        1.91128        1.70654
C          0.93516        3.07479        1.90244
C          0.48088        4.34614        1.20400
C          0.22188        4.07983       -0.28095
C         -0.78754        2.88937       -0.50216
C         -0.69529        2.51843       -1.99349
C         -1.30558        2.16216        2.61786
C         -2.26785        3.34983       -0.21070
C         -3.09001        4.01275       -1.33096
C          0.62108        0.62255        2.20017
C          1.06720        0.52684        3.66236
C         -0.11900        5.41052       -0.97056
O         -3.70393        0.05097       -0.11983
C         -4.32480        0.30438       -1.40564
C         -5.76456        0.70479       -1.09982
C         -5.60288        1.45005        0.23097
C         -4.53014        0.61861        0.93255
O          2.22431        0.65588       -1.74683
C          2.54726        0.60897       -3.14611
C          4.06468        0.45788       -3.16331
C          4.50377        1.35672       -1.98595
C          3.24124        1.45547       -1.09703
Li         0.56243        0.16306       -0.73683
N         -0.24933       -1.75907       -0.87005
C         -0.97237       -2.06596       -2.13522
C         -0.14347       -2.89615       -3.15207
C          1.39103       -3.67236       -1.32468
C          0.51147       -2.89579       -0.27675
C         -0.38595       -3.93477        0.45771
C         -2.34203       -2.77835       -1.92732
C          1.43465       -2.30347        0.81772
C          2.37568       -3.24959        1.57486
C         -1.25621       -0.69204       -2.78177
C         -2.00798       -0.62938       -4.11432
C          2.60696       -2.86506       -1.81056
O         -2.40463       -1.44274        2.00773
C         -1.88663       -1.53864        3.35790
C         -2.86854       -2.43019        4.11006
C         -3.28828       -3.41671        3.01266
C         -3.36346       -2.51277        1.78250
O          3.97870       -0.25760        1.73191
C          5.03157       -0.91717        0.99950
C          6.31697       -0.09944        1.22698
C          5.77945        1.25973        1.70393
C          4.53097        0.83741        2.47560
H          1.10427        3.26747        2.97034
H          1.90073        2.76632        1.47652
H          1.23838        5.13575        1.31103
H         -0.42984        4.73937        1.67682
H          1.17304        3.72597       -0.70689
H         -1.46148        1.79462       -2.26703
H         -0.82975        3.38356       -2.64882
H          0.28498        2.08536       -2.20969
H         -1.02920        2.25087        3.67638
H         -2.00829        1.32871        2.52356
H         -1.84108        3.07406        2.35287
H         -2.79429        2.44502        0.09553
H         -2.28195        4.02243        0.65396
H         -4.08050        4.29401       -0.95105
H         -2.62952        4.92180       -1.72514
H         -3.25440        3.33840       -2.17730
H         -0.06165       -0.20774        2.00202
H          1.50267        0.45183        1.57370
H          1.58394       -0.42465        3.83066
H          1.76755        1.32346        3.93308
H          0.22891        0.57279        4.36516
H         -0.29910        5.30972       -2.04468
H          0.71286        6.11581       -0.84746
H         -1.00250        5.87973       -0.52374
H         -4.24195       -0.60021       -2.01044
H         -3.78495        1.11556       -1.90746
H         -6.20037        1.31727       -1.89361
H         -6.38855       -0.18646       -0.96739
H         -6.52527        1.50597        0.81531
H         -5.24403        2.46855        0.05354
H         -3.89469        1.20507        1.59786
H         -4.97752       -0.19917        1.50692
H          2.22786        1.54193       -3.63535
H          2.00473       -0.22841       -3.58944
H          4.32665       -0.58728       -2.97164
H          4.50633        0.75590       -4.11797
H          4.79790        2.34879       -2.34072
H          5.35256        0.93245       -1.44456
H          3.36915        1.04569       -0.09516
H          2.88663        2.48925       -1.01826
H          0.63128       -2.24916       -3.58477
H         -0.78053       -3.21376       -3.98776
H          1.77022       -4.58112       -0.83636
H         -0.93871       -3.42314        1.24753
H          0.20369       -4.73624        0.92050
H         -1.10934       -4.41816       -0.19778
H         -2.92223       -2.83800       -2.85694
H         -2.94006       -2.23472       -1.19067
H         -2.22654       -3.80210       -1.56881
H          2.03384       -1.49466        0.38831
H          0.78661       -1.83541        1.55913
H          2.98374       -2.66531        2.27297
H          1.83000       -3.99849        2.15888
H          3.06226       -3.78863        0.91376
H         -1.80321       -0.09186       -2.04973
H         -0.28848       -0.19619       -2.91909
H         -2.10798        0.41312       -4.43994
H         -1.47967       -1.16793       -4.90820
H         -3.01832       -1.04512       -4.04846
H          3.39828       -2.82134       -1.05647
H          3.04271       -3.31118       -2.71367
H          2.31974       -1.83859       -2.03872
H         -1.80691       -0.52965        3.76558
H         -0.88547       -1.98734        3.32765
H         -2.41081       -2.91039        4.97899
H         -3.73054       -1.84484        4.45038
H         -4.23972       -3.91642        3.21349
H         -2.51758       -4.18352        2.87841
H         -3.10418       -3.02340        0.85451
H         -4.35883       -2.07127        1.67296
H          4.73886       -0.94580       -0.05618
H          5.12973       -1.95078        1.35111
H          6.92678       -0.55856        2.01245
H          6.92951       -0.02958        0.32388
H          5.49880        1.88704        0.85105
H          6.49219        1.81477        2.32023
H          4.78843        0.51335        3.49657
H          3.76688        1.61665        2.54222
C          0.52424       -4.11002       -2.51335
H         -0.23891       -4.82457       -2.18135
H          1.13756       -4.64279       -3.25354
