64

Li        -0.78514        0.10148        0.09676
C          2.50871       -2.08943        0.30701
C          1.55425       -1.22408        1.17717
C          2.01169        0.76702       -0.27932
C          2.95090       -0.09729       -1.18954
C          3.58140       -1.24572       -0.38607
H          2.97522       -2.88158        0.91259
H          2.29076       -0.57079       -1.93007
H          4.28563       -0.83945        0.35319
H          4.18093       -1.87647       -1.05863
H          1.90594       -2.58988       -0.46567
N          1.04537       -0.06988        0.43760
C          2.29252       -0.88582        2.51500
H          1.74039       -0.12081        3.06997
H          2.38565       -1.77587        3.15425
H          3.30291       -0.50566        2.34746
C          0.34335       -2.12907        1.54950
H         -0.18426       -2.37516        0.61922
H          0.72354       -3.08047        1.94939
C         -0.65890       -1.55215        2.56010
H         -1.53264       -2.20761        2.65809
H         -0.21433       -1.44927        3.55581
H         -1.01992       -0.55837        2.27290
C          4.02916        0.68217       -1.95677
H          4.56098        0.01793       -2.65117
H          3.60716        1.50355       -2.54670
H          4.77791        1.10960       -1.27903
C          1.18609        1.76289       -1.15540
H          1.84294        2.55650       -1.53282
C          2.86355        1.68358        0.65631
H          2.19355        2.18398        1.36497
H          3.60199        1.12724        1.23689
H          3.40574        2.45876        0.09842
H          0.48171        2.25912       -0.47437
C          0.41360        1.18219       -2.34736
H          1.08465        0.89654       -3.16501
H         -0.15420        0.28577       -2.07892
H         -0.29419        1.91797       -2.74826
C         -1.64434        3.86679        0.88645
C         -2.34958        3.51684       -0.44882
C         -2.94013        2.13307       -0.17952
C         -1.53409        2.51340        1.62619
H         -0.65970        4.30878        0.71281
H         -2.23216        4.57691        1.47522
H         -1.62112        3.45257       -1.26272
H         -3.11561        4.24527       -0.72944
H         -3.90737        2.19772        0.34049
H         -3.04892        1.50306       -1.06465
H         -2.18767        2.47980        2.50741
H         -0.51738        2.24793        1.92364
O         -1.97588        1.50276        0.68743
C         -2.73459       -3.18588       -1.60691
C         -3.25714       -2.95388       -0.17855
C         -3.28344       -1.43255       -0.10411
C         -1.75077       -2.02296       -1.81336
H         -2.24838       -4.15697       -1.73314
H         -3.55951       -3.12117       -2.32472
H         -2.55461       -3.35169        0.56176
H         -4.24074       -3.39890       -0.00331
H         -4.17214       -1.01991       -0.60203
H         -3.22147       -1.02499        0.90713
H         -1.82763       -1.57345       -2.80882
H         -0.71056       -2.31303       -1.63654
O         -2.09646       -1.01369       -0.82132
