77

Li         0.74980        0.21297        0.12680
N         -1.18303       -0.00011        0.41344
C         -1.99303        1.20359        0.63504
C         -3.22399        0.92477        1.53768
C         -4.03189       -0.27199        1.04603
C         -3.14193       -1.51710        0.93597
C         -1.87579       -1.24734        0.04155
C         -0.86590       -2.37980        0.33088
C         -1.10644        2.22237        1.38525
C         -2.25547       -1.29298       -1.49758
C         -2.18298       -2.63132       -2.25623
C         -2.46463        1.87761       -0.70717
C         -3.11560        3.26948       -0.63823
C         -3.99959       -2.73311        0.55109
O          1.57615        1.88435       -0.75694
C          2.31233        2.90359       -0.05433
C          1.73198        4.25669       -0.52756
C          0.84923        3.88530       -1.74847
C          1.24644        2.43596       -2.04127
O          1.86221        0.22939        1.77233
C          1.32653       -0.30897        2.99573
C          2.16062       -1.56526        3.24118
C          3.56353       -1.16056        2.72249
C          3.29405        0.08415        1.84147
O          1.94804       -1.06899       -1.02361
C          2.65189       -2.26703       -0.62440
C          2.40252       -3.27427       -1.74315
C          2.39332       -2.36353       -2.98115
C          1.70877       -1.09665       -2.45499
H         -2.85457        0.70431        2.55044
H         -3.86265        1.81544        1.62299
H         -4.86748       -0.47837        1.73097
H         -4.48831       -0.05151        0.07023
H         -2.74155       -1.70288        1.94565
H         -0.56390       -2.33727        1.38320
H         -1.26330       -3.38041        0.13003
H          0.02872       -2.24863       -0.27970
H         -0.68871        1.75967        2.28578
H         -0.27333        2.55123        0.75805
H         -1.66991        3.11190        1.69280
H         -3.25954       -0.87375       -1.63758
H         -1.56972       -0.59603       -1.99042
H         -2.50884       -2.49318       -3.29622
H         -1.15976       -3.02209       -2.29059
H         -2.81618       -3.40823       -1.81816
H         -1.57816        1.93362       -1.34898
H         -3.16052        1.20320       -1.21463
H         -3.42500        3.59990       -1.63895
H         -4.01157        3.27457       -0.00607
H         -2.43092        4.02910       -0.24518
H         -4.78690       -2.88941        1.30073
H         -4.49860       -2.58444       -0.41390
H         -3.41986       -3.65993        0.49015
H          3.37768        2.81407       -0.31083
H          2.18889        2.71385        1.01306
H          1.13746        4.72988        0.25867
H          2.53569        4.94662       -0.80100
H          1.01695        4.53845       -2.60974
H         -0.21081        3.93167       -1.48455
H          0.44858        1.82769       -2.47248
H          2.12913        2.38747       -2.69808
H          0.26249       -0.48541        2.82530
H          1.45447        0.42635        3.80528
H          2.16555       -1.86415        4.29339
H          1.75317       -2.39286        2.65157
H          4.03070       -1.96709        2.15100
H          4.23423       -0.90528        3.54832
H          3.72363        0.98983        2.29102
H          3.65941       -0.00627        0.81668
H          2.26644       -2.57753        0.34950
H          3.72271       -2.03947       -0.52665
H          3.17043       -4.05227       -1.78295
H          1.42620       -3.75346       -1.60991
H          1.85890       -2.79478       -3.83225
H          3.41982       -2.14293       -3.29567
H          2.11071       -0.17772       -2.89157
H          0.62488       -1.12138       -2.61636
