18    
    Coordinates:
            H      3.366116000000   -2.357898000000    0.965133000000
            C      2.916755000000   -1.403173000000    0.711702000000
            C      3.510099000000   -0.566071000000   -0.230133000000
            H      4.431059000000   -0.860179000000   -0.723693000000
            C      2.919431000000    0.659294000000   -0.546900000000
            H      3.375826000000    1.316814000000   -1.282567000000
            C      1.733581000000    1.066605000000    0.068420000000
            N      1.154858000000    2.314560000000   -0.182769000000
            H      1.395052000000    2.692609000000   -1.092083000000
            C      1.143646000000    0.212787000000    1.019995000000
            C      1.729218000000   -1.008772000000    1.335681000000
            H      1.249500000000   -1.646721000000    2.073013000000
            O     -0.017749000000    0.655829000000    1.597848000000
            H      0.153033000000    2.333115000000   -0.028273000000
            H     -0.384690000000   -0.027922000000    2.207030000000
            O     -1.146141000000   -1.130007000000    3.302863000000
            H     -1.727805000000   -1.733633000000    2.820634000000
            H     -0.474787000000   -1.696236000000    3.708099000000
