16    
    Coordinates:
            H      2.955000000000    0.987000000000   -0.002000000000
            C      1.968000000000    0.573000000000   -0.003000000000
            C      1.787000000000   -0.815000000000   -0.030000000000
            H      2.637000000000   -1.465000000000   -0.049000000000
            C      0.492000000000   -1.354000000000   -0.031000000000
            H      0.358000000000   -2.415000000000   -0.052000000000
            C     -0.593000000000   -0.537000000000   -0.006000000000
            N     -1.944000000000   -1.117000000000   -0.008000000000
            H     -1.925000000000   -2.008000000000    0.445000000000
            C     -0.433000000000    0.856000000000    0.021000000000
            C      0.851000000000    1.413000000000    0.023000000000
            H      0.977000000000    2.476000000000    0.044000000000
            O     -1.444000000000    1.606000000000    0.044000000000
            H     -2.257000000000   -1.229000000000   -0.951000000000
            H     -2.569000000000   -0.508000000000    0.480000000000
            H     -1.334000000000    2.559000000000    0.062000000000
