19    
    Coordinates:
            H     -3.025871000000    0.312490000000   -1.197476000000
            C     -2.037926000000    0.016270000000   -0.862461000000
            C     -1.537326000000   -1.239392000000   -1.203356000000
            H     -2.128716000000   -1.922290000000   -1.801396000000
            C     -0.266993000000   -1.616091000000   -0.774916000000
            H      0.139096000000   -2.589286000000   -1.037257000000
            C      0.472088000000   -0.725189000000   -0.012537000000
            N      1.819952000000   -1.057396000000    0.468630000000
            H      2.095186000000   -1.996015000000    0.170921000000
            C     -0.021889000000    0.528232000000    0.341590000000
            C     -1.289219000000    0.902606000000   -0.090620000000
            H     -1.687668000000    1.876700000000    0.177573000000
            O      0.801990000000    1.302045000000    1.110183000000
            H      1.849250000000   -0.996162000000    1.530633000000
            H      2.513177000000   -0.390864000000    0.110621000000
            H      0.497587000000    2.219284000000    1.128814000000
            O      1.654898000000   -0.602756000000    3.072099000000
            H      1.789080000000   -1.039121000000    3.921237000000
            H      1.310303000000    0.285935000000    3.226718000000
